8
	Energy:     -20.5339597
C         -4.69617       -0.43977       -0.01903
C         -3.67095        0.64497       -0.15221
H         -5.69957       -0.00882       -0.06050
H         -4.54584       -0.97893        0.91956
H         -4.58622       -1.14573       -0.84727
O         -2.85042        0.71078       -1.05299
O         -3.74489        1.55949        0.84006
H         -4.45025        1.37607        1.48884
