17
	Energy:      55.0686198
C         -4.42501        1.44366       -0.12142
C         -4.36928        0.04766       -0.18885
C         -3.15563       -0.61941       -0.02973
C         -1.99126        0.10780        0.20677
C         -2.05414        1.50802        0.28108
C         -3.26532        2.20304        0.10228
N         -0.80821        2.21830        0.55191
C         -3.37528        3.70073        0.16250
H         -5.38804        1.93565       -0.25059
H         -5.27964       -0.52075       -0.36829
H         -3.11951       -1.70484       -0.08671
H         -1.04704       -0.41738        0.33600
H         -2.57233        4.17568       -0.41030
H         -3.34082        4.04274        1.20135
H         -4.31884        4.04574       -0.27457
O         -0.81762        3.07642        1.44482
O          0.18351        1.89341       -0.11625
