9
	Energy:      -1.5170969
C         -4.70009       -0.41071        0.01550
C         -3.79359        0.79958       -0.05388
H         -5.68948       -0.13650        0.39207
H         -4.27207       -1.17632        0.67105
H         -4.81221       -0.86607       -0.97404
O         -2.52378        0.39875       -0.54641
H         -3.66351        1.23931        0.93949
H         -4.21093        1.55375       -0.72775
H         -1.96627        1.19476       -0.57934
