7
	Energy:      -0.1378847
C         -4.70035       -0.42846       -0.00292
C         -3.69845        0.68169       -0.08348
H         -5.70677       -0.00496       -0.03742
H         -4.56058       -0.96873        0.93623
H         -4.56625       -1.11617       -0.84151
O         -2.86234        0.77430       -0.97608
H         -3.75272        1.43210        0.72317
