9
	Energy:     -28.3593186
C         -4.69903       -0.46089       -0.03658
C         -3.68377        0.63957       -0.14246
H         -5.70714       -0.03852       -0.06954
H         -4.56141       -1.00189        0.90371
H         -4.57656       -1.15751       -0.87030
O         -2.85518        0.71816       -1.04008
N         -3.74765        1.56844        0.85217
H         -3.08421        2.33176        0.82673
H         -4.42021        1.52846        1.60433
